Version 4
SHEET 1 2112 680
WIRE 320 -112 144 -112
WIRE 640 -112 320 -112
WIRE 1376 -96 1328 -96
WIRE 1408 -96 1376 -96
WIRE 1664 -96 1600 -96
WIRE 1696 -96 1664 -96
WIRE 320 -64 320 -112
WIRE 432 -64 320 -64
WIRE 640 -48 640 -112
WIRE 736 -48 640 -48
WIRE 320 -32 320 -64
WIRE 432 -32 432 -64
WIRE 640 -32 640 -48
WIRE 736 -32 736 -48
WIRE 1328 -32 1328 -96
WIRE 1600 -32 1600 -96
WIRE 272 -16 224 -16
WIRE 592 -16 544 -16
WIRE 272 32 224 32
WIRE 592 32 544 32
WIRE 320 80 320 48
WIRE 432 80 432 32
WIRE 432 80 320 80
WIRE 640 80 640 48
WIRE 736 80 736 32
WIRE 736 80 640 80
WIRE 1328 112 1328 48
WIRE 1600 112 1600 48
WIRE 320 128 320 80
WIRE 800 128 320 128
WIRE 928 128 880 128
WIRE 1056 128 928 128
WIRE 1056 160 1056 128
WIRE 144 176 144 -112
WIRE 928 176 928 128
WIRE 640 240 640 80
WIRE 896 240 640 240
WIRE 1504 240 1328 240
WIRE 896 288 896 240
WIRE 928 288 928 240
WIRE 928 288 896 288
WIRE 1056 288 1056 240
WIRE 1056 288 928 288
WIRE 1328 288 1328 240
WIRE 640 336 640 240
WIRE 736 336 640 336
WIRE 320 352 320 128
WIRE 416 352 320 352
WIRE 320 384 320 352
WIRE 416 384 416 352
WIRE 640 384 640 336
WIRE 736 384 736 336
WIRE 272 400 224 400
WIRE 592 400 544 400
WIRE 1328 400 1328 368
WIRE 272 448 224 448
WIRE 592 448 544 448
WIRE 1504 480 1328 480
WIRE 320 496 320 464
WIRE 416 496 416 448
WIRE 416 496 320 496
WIRE 640 496 640 464
WIRE 736 496 736 448
WIRE 736 496 640 496
WIRE 1328 512 1328 480
WIRE 144 528 144 256
WIRE 320 528 320 496
WIRE 320 528 144 528
WIRE 640 528 640 496
WIRE 640 528 320 528
WIRE 320 576 320 528
WIRE 1328 640 1328 592
FLAG 320 576 0
FLAG 224 -16 0
FLAG 544 -16 0
FLAG 544 400 0
FLAG 224 400 0
FLAG 224 448 S23
FLAG 544 32 S23
FLAG 544 448 S14
FLAG 224 32 S14
FLAG 1328 112 0
FLAG 1600 112 0
FLAG 1376 -96 control
FLAG 1664 -96 carrier
FLAG 1504 240 S14
FLAG 1504 480 S23
SYMBOL voltage 144 160 R0
WINDOW 123 0 0 Left 0
WINDOW 39 0 0 Left 0
SYMATTR InstName V1
SYMATTR Value 300
SYMBOL sw 640 -48 R0
SYMATTR InstName S2
SYMBOL sw 640 368 R0
SYMATTR InstName S4
SYMBOL ind 896 144 M270
WINDOW 0 32 56 VTop 2
WINDOW 3 5 56 VBottom 2
SYMATTR InstName L1
SYMATTR Value 1.6m
SYMATTR SpiceLine Rser=200m
SYMBOL cap 912 176 R0
SYMATTR InstName C1
SYMATTR Value 250µ
SYMATTR SpiceLine Rser=100m
SYMBOL res 1040 144 R0
SYMATTR InstName R
SYMATTR Value 50
SYMBOL sw 320 -48 R0
SYMATTR InstName S1
SYMBOL sw 320 368 R0
SYMATTR InstName S3
SYMBOL voltage 1328 -48 R0
WINDOW 123 0 0 Left 0
WINDOW 39 0 0 Left 0
SYMATTR InstName V2
SYMATTR Value SINE(5 5 50)
SYMBOL voltage 1600 -48 R0
WINDOW 123 0 0 Left 0
WINDOW 39 0 0 Left 0
SYMATTR InstName V3
SYMATTR Value PULSE(0 10 0 {0.5/fs} {0.5/fs} 0 {1/fs})
SYMBOL bv 1328 272 R0
SYMATTR InstName B1
SYMATTR Value V=if(v(control)>=v(carrier),10,0)
SYMBOL bv 1328 496 R0
SYMATTR InstName B2
SYMATTR Value V=if(v(control)<v(carrier),10,0)
SYMBOL res 864 480 R0
SYMATTR InstName R1
SYMATTR Value 50
SYMBOL diode 448 32 R180
WINDOW 0 24 64 Left 2
WINDOW 3 24 0 Left 2
SYMATTR InstName D1
SYMBOL diode 752 32 R180
WINDOW 0 24 64 Left 2
WINDOW 3 24 0 Left 2
SYMATTR InstName D2
SYMBOL diode 752 448 R180
WINDOW 0 24 64 Left 2
WINDOW 3 24 0 Left 2
SYMATTR InstName D3
SYMBOL diode 432 448 R180
WINDOW 0 24 64 Left 2
WINDOW 3 24 0 Left 2
SYMATTR InstName D4
TEXT 760 -88 Left 2 !.param fs=43k
TEXT 760 -64 Left 2 !.model sw sw(ron = 1m roff = 1meg vt = 5)
TEXT 760 -40 Left 2 !.tran 200ms
